*SPEF "ieee 1481-1999"
*DESIGN "i2c_ctrl2202"
*DATE "11:11:11 Fri 11 11, 1111"
*VENDOR "OpenRCX"
*PROGRAM "Parallel Extraction"
*VERSION "1.0"
*DESIGN_FLOW "NAME_SCOPE LOCAL" "PIN_CAP NONE"
*DIVIDER /
*DELIMITER :
*BUS_DELIMITER []
*T_UNIT 1 NS
*C_UNIT 1 PF
*R_UNIT 1 OHM
*L_UNIT 1 HENRY

*NAME_MAP
*1 i_address[1]
*2 i_address[2]
*3 i_address[3]
*4 i_address[4]
*5 i_address[5]
*6 i_address[6]
*7 i_address[7]
*8 i_cclk
*9 i_read
*10 i_rxdata[1]
*11 net24
*12 net25
*13 net26
*14 net27
*15 net28
*16 net29
*17 net30
*18 i_sda
*19 i_start
*20 i_stop
*21 i_txdata[1]
*22 i_txdata[2]
*23 i_txdata[3]
*24 i_txdata[4]
*25 i_txdata[5]
*26 i_txdata[6]
*27 i_txdata[7]
*28 i_txdata[8]
*29 o_busy
*30 o_scl
*31 o_sda
*34 _000_
*35 _001_
*36 _002_
*37 _003_
*38 _004_
*39 _005_
*40 _006_
*41 _007_
*42 _008_
*43 _009_
*44 _010_
*45 _011_
*46 _012_
*47 _013_
*48 _014_
*49 _015_
*50 _016_
*51 _017_
*52 _018_
*53 _019_
*54 _020_
*55 _021_
*56 _022_
*57 _023_
*58 _024_
*59 _025_
*60 _026_
*61 _027_
*62 _028_
*63 _029_
*64 _030_
*65 _031_
*66 _032_
*67 _033_
*68 _034_
*69 _035_
*70 _036_
*71 _037_
*72 _038_
*73 _039_
*74 _040_
*75 _041_
*76 _042_
*77 _043_
*78 _044_
*79 _045_
*80 _046_
*81 _047_
*82 _048_
*83 _049_
*84 _050_
*85 _051_
*86 _052_
*87 _053_
*88 _054_
*89 _055_
*90 _056_
*91 _057_
*92 _058_
*93 _059_
*94 _060_
*95 _061_
*96 _062_
*97 _063_
*98 _064_
*99 _065_
*100 _066_
*101 _067_
*102 _068_
*103 _069_
*104 _070_
*105 _071_
*106 _072_
*107 _073_
*108 _074_
*109 _075_
*110 _076_
*111 _077_
*112 _078_
*113 _079_
*114 _080_
*115 _081_
*116 _082_
*117 _083_
*118 _084_
*119 _085_
*120 _086_
*121 _087_
*122 _088_
*123 _089_
*124 _090_
*125 _091_
*126 _092_
*127 _093_
*128 _094_
*129 _095_
*130 _096_
*131 a_cycle\[0\]
*132 a_cycle\[1\]
*133 a_cycle\[2\]
*134 clknet_0_i_cclk
*135 clknet_1_0_0_i_cclk
*136 clknet_1_1_0_i_cclk
*137 net1
*138 net10
*139 net11
*140 net12
*141 net13
*142 net14
*143 net15
*144 net16
*145 net17
*146 net18
*147 net19
*148 net2
*149 net20
*150 net21
*151 net22
*152 net23
*153 net3
*154 net4
*155 net5
*156 net6
*157 net7
*158 net8
*159 net9
*160 r_i_address\[1\]
*161 r_i_address\[2\]
*162 r_i_address\[3\]
*163 r_i_address\[4\]
*164 r_i_address\[5\]
*165 r_i_address\[6\]
*166 r_i_address\[7\]
*167 state\[0\]
*168 state\[1\]
*169 state\[2\]
*170 x_cycle\[0\]
*171 x_cycle\[1\]
*172 x_cycle\[2\]
*173 x_cycle\[3\]
*174 ANTENNA__099__D
*175 ANTENNA__105__B
*176 ANTENNA__106__A
*177 ANTENNA__106__B
*178 ANTENNA__106__C
*179 ANTENNA__107__A
*180 ANTENNA__108__A
*181 ANTENNA__109__B_N
*182 ANTENNA__110__A3
*183 ANTENNA__111__A
*184 ANTENNA__113__A1
*185 ANTENNA__113__A2
*186 ANTENNA__113__A3
*187 ANTENNA__113__B1
*188 ANTENNA__117__B
*189 ANTENNA__118__A
*190 ANTENNA__119__B
*191 ANTENNA__120__B
*192 ANTENNA__121__B1
*193 ANTENNA__127__A0
*194 ANTENNA__127__A1
*195 ANTENNA__127__S
*196 ANTENNA__128__A
*197 ANTENNA__129__A0
*198 ANTENNA__129__A1
*199 ANTENNA__129__S
*200 ANTENNA__131__A0
*201 ANTENNA__131__A1
*202 ANTENNA__131__S
*203 ANTENNA__132__A
*204 ANTENNA__133__A0
*205 ANTENNA__133__A1
*206 ANTENNA__133__S
*207 ANTENNA__134__A
*208 ANTENNA__135__A0
*209 ANTENNA__135__A1
*210 ANTENNA__135__S
*211 ANTENNA__136__A
*212 ANTENNA__137__A0
*213 ANTENNA__137__A1
*214 ANTENNA__137__S
*215 ANTENNA__138__A
*216 ANTENNA__139__A0
*217 ANTENNA__139__A1
*218 ANTENNA__139__S
*219 ANTENNA__140__A
*220 ANTENNA__146__A2
*221 ANTENNA__151__A2
*222 ANTENNA__151__B1
*223 ANTENNA__155__A
*224 ANTENNA__156__A
*225 ANTENNA__156__B
*226 ANTENNA__158__A
*227 ANTENNA__158__B
*228 ANTENNA__158__C
*229 ANTENNA__159__A1
*230 ANTENNA__159__A2
*231 ANTENNA__159__A3
*232 ANTENNA__159__B1
*233 ANTENNA__160__B
*234 ANTENNA__161__A0
*235 ANTENNA__161__A1
*236 ANTENNA__161__S
*237 ANTENNA__162__B
*238 ANTENNA__163__A
*239 ANTENNA__163__B
*240 ANTENNA__166__A0
*241 ANTENNA__166__A1
*242 ANTENNA__166__S
*243 ANTENNA__167__A0
*244 ANTENNA__167__A1
*245 ANTENNA__167__S
*246 ANTENNA__168__A1
*247 ANTENNA__171__B_N
*248 ANTENNA__172__B
*249 ANTENNA__173__A2
*250 ANTENNA__175__A0
*251 ANTENNA__175__A1
*252 ANTENNA__175__A2
*253 ANTENNA__175__A3
*254 ANTENNA__178__A0
*255 ANTENNA__178__A1
*256 ANTENNA__179__A1
*257 ANTENNA__181__B
*258 ANTENNA__182__B
*259 ANTENNA__184__A0
*260 ANTENNA__184__A1
*261 ANTENNA__186__S
*262 ANTENNA__188__A1
*263 ANTENNA__191__B
*264 ANTENNA__191__C
*265 ANTENNA__192__A0
*266 ANTENNA__192__A1
*267 ANTENNA__194__CLK
*268 ANTENNA__195__CLK
*269 ANTENNA__196__CLK
*270 ANTENNA__197__CLK
*271 ANTENNA__198__CLK
*272 ANTENNA__199__CLK
*273 ANTENNA__200__CLK
*274 ANTENNA__201__CLK
*275 ANTENNA__202__CLK
*276 ANTENNA__203__CLK
*277 ANTENNA__204__CLK
*278 ANTENNA__205__CLK
*279 ANTENNA__206__CLK
*280 ANTENNA__207__CLK
*281 ANTENNA__208__CLK
*282 ANTENNA__209__CLK
*283 ANTENNA__210__CLK
*284 ANTENNA__211__CLK
*285 ANTENNA__212__CLK
*286 ANTENNA__213__CLK
*287 ANTENNA__221__A
*288 ANTENNA_clkbuf_0_i_cclk_A
*289 ANTENNA_input10_A
*290 ANTENNA_input11_A
*291 ANTENNA_input12_A
*292 ANTENNA_input13_A
*293 ANTENNA_input14_A
*294 ANTENNA_input15_A
*295 ANTENNA_input16_A
*296 ANTENNA_input17_A
*297 ANTENNA_input18_A
*298 ANTENNA_input19_A
*299 ANTENNA_input1_A
*300 ANTENNA_input2_A
*301 ANTENNA_input3_A
*302 ANTENNA_input4_A
*303 ANTENNA_input5_A
*304 ANTENNA_input6_A
*305 ANTENNA_input7_A
*306 ANTENNA_input8_A
*307 ANTENNA_input9_A
*308 ANTENNA_output20_A
*309 ANTENNA_output21_A
*310 ANTENNA_output22_A
*311 ANTENNA_output23_A
*312 FILLER_0_1005
*313 FILLER_0_1009
*314 FILLER_0_1014
*315 FILLER_0_1024
*316 FILLER_0_1037
*317 FILLER_0_1049
*318 FILLER_0_1061
*319 FILLER_0_1065
*320 FILLER_0_1077
*321 FILLER_0_1089
*322 FILLER_0_109
*323 FILLER_0_1093
*324 FILLER_0_1105
*325 FILLER_0_1117
*326 FILLER_0_1121
*327 FILLER_0_113
*328 FILLER_0_1133
*329 FILLER_0_1145
*330 FILLER_0_1149
*331 FILLER_0_1161
*332 FILLER_0_1173
*333 FILLER_0_1177
*334 FILLER_0_1189
*335 FILLER_0_1201
*336 FILLER_0_1205
*337 FILLER_0_1213
*338 FILLER_0_1217
*339 FILLER_0_1227
*340 FILLER_0_1231
*341 FILLER_0_1233
*342 FILLER_0_1245
*343 FILLER_0_125
*344 FILLER_0_1257
*345 FILLER_0_1261
*346 FILLER_0_1273
*347 FILLER_0_1285
*348 FILLER_0_1289
*349 FILLER_0_1301
*350 FILLER_0_1313
*351 FILLER_0_1317
*352 FILLER_0_1329
*353 FILLER_0_1341
*354 FILLER_0_1345
*355 FILLER_0_1357
*356 FILLER_0_1369
*357 FILLER_0_137
*358 FILLER_0_1373
*359 FILLER_0_1385
*360 FILLER_0_1397
*361 FILLER_0_1401
*362 FILLER_0_141
*363 FILLER_0_1413
*364 FILLER_0_1425
*365 FILLER_0_1429
*366 FILLER_0_1434
*367 FILLER_0_1446
*368 FILLER_0_1454
*369 FILLER_0_1457
*370 FILLER_0_1469
*371 FILLER_0_1481
*372 FILLER_0_1485
*373 FILLER_0_1497
*374 FILLER_0_1509
*375 FILLER_0_1513
*376 FILLER_0_1525
*377 FILLER_0_153
*378 FILLER_0_1537
*379 FILLER_0_1541
*380 FILLER_0_1553
*381 FILLER_0_1565
*382 FILLER_0_1569
*383 FILLER_0_1581
*384 FILLER_0_1593
*385 FILLER_0_1597
*386 FILLER_0_1609
*387 FILLER_0_1621
*388 FILLER_0_1625
*389 FILLER_0_1637
*390 FILLER_0_1649
*391 FILLER_0_165
*392 FILLER_0_1653
*393 FILLER_0_1665
*394 FILLER_0_1677
*395 FILLER_0_1681
*396 FILLER_0_169
*397 FILLER_0_1693
*398 FILLER_0_1705
*399 FILLER_0_1709
*400 FILLER_0_1721
*401 FILLER_0_1733
*402 FILLER_0_1737
*403 FILLER_0_1749
*404 FILLER_0_1761
*405 FILLER_0_1765
*406 FILLER_0_1777
*407 FILLER_0_1789
*408 FILLER_0_1793
*409 FILLER_0_18
*410 FILLER_0_1805
*411 FILLER_0_181
*412 FILLER_0_1817
*413 FILLER_0_1821
*414 FILLER_0_1833
*415 FILLER_0_1841
*416 FILLER_0_1844
*417 FILLER_0_1861
*418 FILLER_0_1873
*419 FILLER_0_1877
*420 FILLER_0_1889
*421 FILLER_0_189
*422 FILLER_0_1901
*423 FILLER_0_1905
*424 FILLER_0_1917
*425 FILLER_0_192
*426 FILLER_0_209
*427 FILLER_0_221
*428 FILLER_0_225
*429 FILLER_0_237
*430 FILLER_0_249
*431 FILLER_0_253
*432 FILLER_0_26
*433 FILLER_0_265
*434 FILLER_0_277
*435 FILLER_0_281
*436 FILLER_0_29
*437 FILLER_0_293
*438 FILLER_0_305
*439 FILLER_0_309
*440 FILLER_0_321
*441 FILLER_0_333
*442 FILLER_0_337
*443 FILLER_0_349
*444 FILLER_0_361
*445 FILLER_0_365
*446 FILLER_0_377
*447 FILLER_0_389
*448 FILLER_0_393
*449 FILLER_0_398
*450 FILLER_0_41
*451 FILLER_0_410
*452 FILLER_0_418
*453 FILLER_0_421
*454 FILLER_0_433
*455 FILLER_0_445
*456 FILLER_0_449
*457 FILLER_0_461
*458 FILLER_0_473
*459 FILLER_0_477
*460 FILLER_0_489
*461 FILLER_0_501
*462 FILLER_0_505
*463 FILLER_0_517
*464 FILLER_0_529
*465 FILLER_0_53
*466 FILLER_0_533
*467 FILLER_0_545
*468 FILLER_0_557
*469 FILLER_0_561
*470 FILLER_0_57
*471 FILLER_0_573
*472 FILLER_0_585
*473 FILLER_0_589
*474 FILLER_0_597
*475 FILLER_0_6
*476 FILLER_0_601
*477 FILLER_0_611
*478 FILLER_0_615
*479 FILLER_0_617
*480 FILLER_0_629
*481 FILLER_0_641
*482 FILLER_0_645
*483 FILLER_0_657
*484 FILLER_0_669
*485 FILLER_0_673
*486 FILLER_0_685
*487 FILLER_0_69
*488 FILLER_0_697
*489 FILLER_0_701
*490 FILLER_0_713
*491 FILLER_0_725
*492 FILLER_0_729
*493 FILLER_0_741
*494 FILLER_0_753
*495 FILLER_0_757
*496 FILLER_0_769
*497 FILLER_0_781
*498 FILLER_0_785
*499 FILLER_0_797
*500 FILLER_0_805
*501 FILLER_0_808
*502 FILLER_0_81
*503 FILLER_0_819
*504 FILLER_0_831
*505 FILLER_0_839
*506 FILLER_0_841
*507 FILLER_0_85
*508 FILLER_0_853
*509 FILLER_0_865
*510 FILLER_0_869
*511 FILLER_0_881
*512 FILLER_0_893
*513 FILLER_0_897
*514 FILLER_0_909
*515 FILLER_0_921
*516 FILLER_0_925
*517 FILLER_0_937
*518 FILLER_0_949
*519 FILLER_0_953
*520 FILLER_0_965
*521 FILLER_0_97
*522 FILLER_0_977
*523 FILLER_0_981
*524 FILLER_0_993
*525 FILLER_100_1005
*526 FILLER_100_1017
*527 FILLER_100_1025
*528 FILLER_100_1029
*529 FILLER_100_1035
*530 FILLER_100_1037
*531 FILLER_100_1049
*532 FILLER_100_1061
*533 FILLER_100_1073
*534 FILLER_100_1085
*535 FILLER_100_109
*536 FILLER_100_1091
*537 FILLER_100_1093
*538 FILLER_100_1105
*539 FILLER_100_1117
*540 FILLER_100_1129
*541 FILLER_100_1141
*542 FILLER_100_1147
*543 FILLER_100_1149
*544 FILLER_100_1161
*545 FILLER_100_1173
*546 FILLER_100_1185
*547 FILLER_100_1197
*548 FILLER_100_1203
*549 FILLER_100_1205
*550 FILLER_100_121
*551 FILLER_100_1217
*552 FILLER_100_1229
*553 FILLER_100_1241
*554 FILLER_100_1253
*555 FILLER_100_1259
*556 FILLER_100_1261
*557 FILLER_100_1273
*558 FILLER_100_1285
*559 FILLER_100_1297
*560 FILLER_100_1309
*561 FILLER_100_1315
*562 FILLER_100_1317
*563 FILLER_100_1329
*564 FILLER_100_133
*565 FILLER_100_1341
*566 FILLER_100_1353
*567 FILLER_100_1365
*568 FILLER_100_1371
*569 FILLER_100_1373
*570 FILLER_100_1385
*571 FILLER_100_139
*572 FILLER_100_1397
*573 FILLER_100_1409
*574 FILLER_100_141
*575 FILLER_100_1421
*576 FILLER_100_1427
*577 FILLER_100_1429
*578 FILLER_100_1441
*579 FILLER_100_1453
*580 FILLER_100_1465
*581 FILLER_100_1477
*582 FILLER_100_1483
*583 FILLER_100_1485
*584 FILLER_100_1497
*585 FILLER_100_15
*586 FILLER_100_1509
*587 FILLER_100_1521
*588 FILLER_100_153
*589 FILLER_100_1533
*590 FILLER_100_1539
*591 FILLER_100_1541
*592 FILLER_100_1553
*593 FILLER_100_1565
*594 FILLER_100_1577
*595 FILLER_100_1589
*596 FILLER_100_1595
*597 FILLER_100_1597
*598 FILLER_100_1609
*599 FILLER_100_1621
*600 FILLER_100_1633
*601 FILLER_100_1645
*602 FILLER_100_165
*603 FILLER_100_1651
*604 FILLER_100_1653
*605 FILLER_100_1665
*606 FILLER_100_1677
*607 FILLER_100_1689
*608 FILLER_100_1701
*609 FILLER_100_1707
*610 FILLER_100_1709
*611 FILLER_100_1721
*612 FILLER_100_1733
*613 FILLER_100_1745
*614 FILLER_100_1757
*615 FILLER_100_1763
*616 FILLER_100_1765
*617 FILLER_100_177
*618 FILLER_100_1777
*619 FILLER_100_1789
*620 FILLER_100_1801
*621 FILLER_100_1813
*622 FILLER_100_1819
*623 FILLER_100_1821
*624 FILLER_100_1833
*625 FILLER_100_1845
*626 FILLER_100_1857
*627 FILLER_100_1869
*628 FILLER_100_1875
*629 FILLER_100_1877
*630 FILLER_100_1889
*631 FILLER_100_189
*632 FILLER_100_1901
*633 FILLER_100_1913
*634 FILLER_100_1925
*635 FILLER_100_195
*636 FILLER_100_197
*637 FILLER_100_209
*638 FILLER_100_221
*639 FILLER_100_233
*640 FILLER_100_245
*641 FILLER_100_251
*642 FILLER_100_253
*643 FILLER_100_265
*644 FILLER_100_27
*645 FILLER_100_277
*646 FILLER_100_289
*647 FILLER_100_29
*648 FILLER_100_3
*649 FILLER_100_301
*650 FILLER_100_307
*651 FILLER_100_309
*652 FILLER_100_321
*653 FILLER_100_333
*654 FILLER_100_345
*655 FILLER_100_357
*656 FILLER_100_363
*657 FILLER_100_365
*658 FILLER_100_377
*659 FILLER_100_389
*660 FILLER_100_401
*661 FILLER_100_41
*662 FILLER_100_413
*663 FILLER_100_419
*664 FILLER_100_421
*665 FILLER_100_433
*666 FILLER_100_445
*667 FILLER_100_457
*668 FILLER_100_469
*669 FILLER_100_475
*670 FILLER_100_477
*671 FILLER_100_489
*672 FILLER_100_501
*673 FILLER_100_513
*674 FILLER_100_525
*675 FILLER_100_53
*676 FILLER_100_531
*677 FILLER_100_533
*678 FILLER_100_545
*679 FILLER_100_557
*680 FILLER_100_569
*681 FILLER_100_581
*682 FILLER_100_587
*683 FILLER_100_589
*684 FILLER_100_601
*685 FILLER_100_613
*686 FILLER_100_625
*687 FILLER_100_637
*688 FILLER_100_643
*689 FILLER_100_645
*690 FILLER_100_65
*691 FILLER_100_657
*692 FILLER_100_669
*693 FILLER_100_681
*694 FILLER_100_693
*695 FILLER_100_699
*696 FILLER_100_701
*697 FILLER_100_713
*698 FILLER_100_725
*699 FILLER_100_737
*700 FILLER_100_749
*701 FILLER_100_755
*702 FILLER_100_757
*703 FILLER_100_769
*704 FILLER_100_77
*705 FILLER_100_781
*706 FILLER_100_793
*707 FILLER_100_805
*708 FILLER_100_811
*709 FILLER_100_813
*710 FILLER_100_825
*711 FILLER_100_83
*712 FILLER_100_837
*713 FILLER_100_849
*714 FILLER_100_85
*715 FILLER_100_861
*716 FILLER_100_867
*717 FILLER_100_869
*718 FILLER_100_881
*719 FILLER_100_893
*720 FILLER_100_905
*721 FILLER_100_917
*722 FILLER_100_923
*723 FILLER_100_925
*724 FILLER_100_937
*725 FILLER_100_949
*726 FILLER_100_961
*727 FILLER_100_97
*728 FILLER_100_973
*729 FILLER_100_979
*730 FILLER_100_981
*731 FILLER_100_993
*732 FILLER_101_1001
*733 FILLER_101_1007
*734 FILLER_101_1009
*735 FILLER_101_1021
*736 FILLER_101_1033
*737 FILLER_101_1045
*738 FILLER_101_105
*739 FILLER_101_1057
*740 FILLER_101_1063
*741 FILLER_101_1065
*742 FILLER_101_1077
*743 FILLER_101_1089
*744 FILLER_101_1101
*745 FILLER_101_111
*746 FILLER_101_1113
*747 FILLER_101_1119
*748 FILLER_101_1121
*749 FILLER_101_113
*750 FILLER_101_1133
*751 FILLER_101_1145
*752 FILLER_101_1157
*753 FILLER_101_1169
*754 FILLER_101_1175
*755 FILLER_101_1177
*756 FILLER_101_1189
*757 FILLER_101_1201
*758 FILLER_101_1213
*759 FILLER_101_1225
*760 FILLER_101_1231
*761 FILLER_101_1233
*762 FILLER_101_1245
*763 FILLER_101_125
*764 FILLER_101_1257
*765 FILLER_101_1269
*766 FILLER_101_1281
*767 FILLER_101_1287
*768 FILLER_101_1289
*769 FILLER_101_1301
*770 FILLER_101_1313
*771 FILLER_101_1325
*772 FILLER_101_1337
*773 FILLER_101_1343
*774 FILLER_101_1345
*775 FILLER_101_1357
*776 FILLER_101_1369
*777 FILLER_101_137
*778 FILLER_101_1381
*779 FILLER_101_1393
*780 FILLER_101_1399
*781 FILLER_101_1401
*782 FILLER_101_1413
*783 FILLER_101_1425
*784 FILLER_101_1437
*785 FILLER_101_1449
*786 FILLER_101_1455
*787 FILLER_101_1457
*788 FILLER_101_1469
*789 FILLER_101_1481
*790 FILLER_101_149
*791 FILLER_101_1493
*792 FILLER_101_15
*793 FILLER_101_1505
*794 FILLER_101_1511
*795 FILLER_101_1513
*796 FILLER_101_1525
*797 FILLER_101_1537
*798 FILLER_101_1549
*799 FILLER_101_1561
*800 FILLER_101_1567
*801 FILLER_101_1569
*802 FILLER_101_1581
*803 FILLER_101_1593
*804 FILLER_101_1605
*805 FILLER_101_161
*806 FILLER_101_1617
*807 FILLER_101_1623
*808 FILLER_101_1625
*809 FILLER_101_1637
*810 FILLER_101_1649
*811 FILLER_101_1661
*812 FILLER_101_167
*813 FILLER_101_1673
*814 FILLER_101_1679
*815 FILLER_101_1681
*816 FILLER_101_169
*817 FILLER_101_1693
*818 FILLER_101_1705
*819 FILLER_101_1717
*820 FILLER_101_1729
*821 FILLER_101_1735
*822 FILLER_101_1737
*823 FILLER_101_1749
*824 FILLER_101_1761
*825 FILLER_101_1773
*826 FILLER_101_1785
*827 FILLER_101_1791
*828 FILLER_101_1793
*829 FILLER_101_1805
*830 FILLER_101_181
*831 FILLER_101_1817
*832 FILLER_101_1829
*833 FILLER_101_1841
*834 FILLER_101_1847
*835 FILLER_101_1849
*836 FILLER_101_1861
*837 FILLER_101_1873
*838 FILLER_101_1885
*839 FILLER_101_1897
*840 FILLER_101_1903
*841 FILLER_101_1905
*842 FILLER_101_1917
*843 FILLER_101_193
*844 FILLER_101_205
*845 FILLER_101_217
*846 FILLER_101_223
*847 FILLER_101_225
*848 FILLER_101_237
*849 FILLER_101_249
*850 FILLER_101_261
*851 FILLER_101_27
*852 FILLER_101_273
*853 FILLER_101_279
*854 FILLER_101_281
*855 FILLER_101_293
*856 FILLER_101_3
*857 FILLER_101_305
*858 FILLER_101_317
*859 FILLER_101_329
*860 FILLER_101_335
*861 FILLER_101_337
*862 FILLER_101_349
*863 FILLER_101_361
*864 FILLER_101_373
*865 FILLER_101_385
*866 FILLER_101_39
*867 FILLER_101_391
*868 FILLER_101_393
*869 FILLER_101_405
*870 FILLER_101_417
*871 FILLER_101_429
*872 FILLER_101_441
*873 FILLER_101_447
*874 FILLER_101_449
*875 FILLER_101_461
*876 FILLER_101_473
*877 FILLER_101_485
*878 FILLER_101_497
*879 FILLER_101_503
*880 FILLER_101_505
*881 FILLER_101_51
*882 FILLER_101_517
*883 FILLER_101_529
*884 FILLER_101_541
*885 FILLER_101_55
*886 FILLER_101_553
*887 FILLER_101_559
*888 FILLER_101_561
*889 FILLER_101_57
*890 FILLER_101_573
*891 FILLER_101_585
*892 FILLER_101_597
*893 FILLER_101_609
*894 FILLER_101_615
*895 FILLER_101_617
*896 FILLER_101_629
*897 FILLER_101_641
*898 FILLER_101_653
*899 FILLER_101_665
*900 FILLER_101_671
*901 FILLER_101_673
*902 FILLER_101_685
*903 FILLER_101_69
*904 FILLER_101_697
*905 FILLER_101_709
*906 FILLER_101_721
*907 FILLER_101_727
*908 FILLER_101_729
*909 FILLER_101_741
*910 FILLER_101_753
*911 FILLER_101_765
*912 FILLER_101_777
*913 FILLER_101_783
*914 FILLER_101_785
*915 FILLER_101_797
*916 FILLER_101_809
*917 FILLER_101_81
*918 FILLER_101_821
*919 FILLER_101_833
*920 FILLER_101_839
*921 FILLER_101_841
*922 FILLER_101_853
*923 FILLER_101_865
*924 FILLER_101_877
*925 FILLER_101_889
*926 FILLER_101_895
*927 FILLER_101_897
*928 FILLER_101_909
*929 FILLER_101_921
*930 FILLER_101_93
*931 FILLER_101_933
*932 FILLER_101_945
*933 FILLER_101_951
*934 FILLER_101_953
*935 FILLER_101_965
*936 FILLER_101_977
*937 FILLER_101_989
*938 FILLER_102_1005
*939 FILLER_102_1017
*940 FILLER_102_1029
*941 FILLER_102_1035
*942 FILLER_102_1037
*943 FILLER_102_1049
*944 FILLER_102_1061
*945 FILLER_102_1073
*946 FILLER_102_1085
*947 FILLER_102_109
*948 FILLER_102_1091
*949 FILLER_102_1093
*950 FILLER_102_1105
*951 FILLER_102_1117
*952 FILLER_102_1129
*953 FILLER_102_1141
*954 FILLER_102_1147
*955 FILLER_102_1149
*956 FILLER_102_1161
*957 FILLER_102_1173
*958 FILLER_102_1185
*959 FILLER_102_1197
*960 FILLER_102_1203
*961 FILLER_102_1205
*962 FILLER_102_121
*963 FILLER_102_1217
*964 FILLER_102_1229
*965 FILLER_102_1241
*966 FILLER_102_1253
*967 FILLER_102_1259
*968 FILLER_102_1261
*969 FILLER_102_1273
*970 FILLER_102_1285
*971 FILLER_102_1297
*972 FILLER_102_1309
*973 FILLER_102_1315
*974 FILLER_102_1317
*975 FILLER_102_1329
*976 FILLER_102_133
*977 FILLER_102_1341
*978 FILLER_102_1353
*979 FILLER_102_1365
*980 FILLER_102_1371
*981 FILLER_102_1373
*982 FILLER_102_1385
*983 FILLER_102_139
*984 FILLER_102_1397
*985 FILLER_102_1409
*986 FILLER_102_141
*987 FILLER_102_1421
*988 FILLER_102_1427
*989 FILLER_102_1429
*990 FILLER_102_1441
*991 FILLER_102_1453
*992 FILLER_102_1465
*993 FILLER_102_1477
*994 FILLER_102_1483
*995 FILLER_102_1485
*996 FILLER_102_1497
*997 FILLER_102_15
*998 FILLER_102_1509
*999 FILLER_102_1521
*1000 FILLER_102_153
*1001 FILLER_102_1533
*1002 FILLER_102_1539
*1003 FILLER_102_1541
*1004 FILLER_102_1553
*1005 FILLER_102_1565
*1006 FILLER_102_1577
*1007 FILLER_102_1589
*1008 FILLER_102_1595
*1009 FILLER_102_1597
*1010 FILLER_102_1609
*1011 FILLER_102_1621
*1012 FILLER_102_1633
*1013 FILLER_102_1645
*1014 FILLER_102_165
*1015 FILLER_102_1651
*1016 FILLER_102_1653
*1017 FILLER_102_1665
*1018 FILLER_102_1677
*1019 FILLER_102_1689
*1020 FILLER_102_1701
*1021 FILLER_102_1707
*1022 FILLER_102_1709
*1023 FILLER_102_1721
*1024 FILLER_102_1733
*1025 FILLER_102_1745
*1026 FILLER_102_1757
*1027 FILLER_102_1763
*1028 FILLER_102_1765
*1029 FILLER_102_177
*1030 FILLER_102_1777
*1031 FILLER_102_1789
*1032 FILLER_102_1801
*1033 FILLER_102_1813
*1034 FILLER_102_1819
*1035 FILLER_102_1821
*1036 FILLER_102_1833
*1037 FILLER_102_1845
*1038 FILLER_102_1857
*1039 FILLER_102_1869
*1040 FILLER_102_1875
*1041 FILLER_102_1877
*1042 FILLER_102_1889
*1043 FILLER_102_189
*1044 FILLER_102_1901
*1045 FILLER_102_1913
*1046 FILLER_102_1925
*1047 FILLER_102_195
*1048 FILLER_102_197
*1049 FILLER_102_209
*1050 FILLER_102_221
*1051 FILLER_102_233
*1052 FILLER_102_245
*1053 FILLER_102_251
*1054 FILLER_102_253
*1055 FILLER_102_265
*1056 FILLER_102_27
*1057 FILLER_102_277
*1058 FILLER_102_289
*1059 FILLER_102_29
*1060 FILLER_102_3
*1061 FILLER_102_301
*1062 FILLER_102_307
*1063 FILLER_102_309
*1064 FILLER_102_321
*1065 FILLER_102_333
*1066 FILLER_102_345
*1067 FILLER_102_357
*1068 FILLER_102_363
*1069 FILLER_102_365
*1070 FILLER_102_377
*1071 FILLER_102_389
*1072 FILLER_102_401
*1073 FILLER_102_41
*1074 FILLER_102_413
*1075 FILLER_102_419
*1076 FILLER_102_421
*1077 FILLER_102_433
*1078 FILLER_102_445
*1079 FILLER_102_457
*1080 FILLER_102_469
*1081 FILLER_102_475
*1082 FILLER_102_477
*1083 FILLER_102_489
*1084 FILLER_102_501
*1085 FILLER_102_513
*1086 FILLER_102_525
*1087 FILLER_102_53
*1088 FILLER_102_531
*1089 FILLER_102_533
*1090 FILLER_102_545
*1091 FILLER_102_557
*1092 FILLER_102_569
*1093 FILLER_102_581
*1094 FILLER_102_587
*1095 FILLER_102_589
*1096 FILLER_102_601
*1097 FILLER_102_613
*1098 FILLER_102_625
*1099 FILLER_102_637
*1100 FILLER_102_643
*1101 FILLER_102_645
*1102 FILLER_102_65
*1103 FILLER_102_657
*1104 FILLER_102_669
*1105 FILLER_102_681
*1106 FILLER_102_693
*1107 FILLER_102_699
*1108 FILLER_102_701
*1109 FILLER_102_713
*1110 FILLER_102_725
*1111 FILLER_102_737
*1112 FILLER_102_749
*1113 FILLER_102_755
*1114 FILLER_102_757
*1115 FILLER_102_769
*1116 FILLER_102_77
*1117 FILLER_102_781
*1118 FILLER_102_793
*1119 FILLER_102_805
*1120 FILLER_102_811
*1121 FILLER_102_813
*1122 FILLER_102_825
*1123 FILLER_102_83
*1124 FILLER_102_837
*1125 FILLER_102_849
*1126 FILLER_102_85
*1127 FILLER_102_861
*1128 FILLER_102_867
*1129 FILLER_102_869
*1130 FILLER_102_881
*1131 FILLER_102_893
*1132 FILLER_102_905
*1133 FILLER_102_917
*1134 FILLER_102_923
*1135 FILLER_102_925
*1136 FILLER_102_937
*1137 FILLER_102_949
*1138 FILLER_102_961
*1139 FILLER_102_97
*1140 FILLER_102_973
*1141 FILLER_102_979
*1142 FILLER_102_981
*1143 FILLER_102_993
*1144 FILLER_103_1001
*1145 FILLER_103_1007
*1146 FILLER_103_1009
*1147 FILLER_103_1021
*1148 FILLER_103_1033
*1149 FILLER_103_1045
*1150 FILLER_103_105
*1151 FILLER_103_1057
*1152 FILLER_103_1063
*1153 FILLER_103_1065
*1154 FILLER_103_1077
*1155 FILLER_103_1089
*1156 FILLER_103_1101
*1157 FILLER_103_111
*1158 FILLER_103_1113
*1159 FILLER_103_1119
*1160 FILLER_103_1121
*1161 FILLER_103_113
*1162 FILLER_103_1133
*1163 FILLER_103_1145
*1164 FILLER_103_1157
*1165 FILLER_103_1169
*1166 FILLER_103_1175
*1167 FILLER_103_1177
*1168 FILLER_103_1189
*1169 FILLER_103_1201
*1170 FILLER_103_1213
*1171 FILLER_103_1225
*1172 FILLER_103_1231
*1173 FILLER_103_1233
*1174 FILLER_103_1245
*1175 FILLER_103_125
*1176 FILLER_103_1257
*1177 FILLER_103_1269
*1178 FILLER_103_1281
*1179 FILLER_103_1287
*1180 FILLER_103_1289
*1181 FILLER_103_1301
*1182 FILLER_103_1313
*1183 FILLER_103_1325
*1184 FILLER_103_1337
*1185 FILLER_103_1343
*1186 FILLER_103_1345
*1187 FILLER_103_1357
*1188 FILLER_103_1369
*1189 FILLER_103_137
*1190 FILLER_103_1381
*1191 FILLER_103_1393
*1192 FILLER_103_1399
*1193 FILLER_103_1401
*1194 FILLER_103_1413
*1195 FILLER_103_1425
*1196 FILLER_103_1437
*1197 FILLER_103_1449
*1198 FILLER_103_1455
*1199 FILLER_103_1457
*1200 FILLER_103_1469
*1201 FILLER_103_1481
*1202 FILLER_103_149
*1203 FILLER_103_1493
*1204 FILLER_103_15
*1205 FILLER_103_1505
*1206 FILLER_103_1511
*1207 FILLER_103_1513
*1208 FILLER_103_1525
*1209 FILLER_103_1537
*1210 FILLER_103_1549
*1211 FILLER_103_1561
*1212 FILLER_103_1567
*1213 FILLER_103_1569
*1214 FILLER_103_1581
*1215 FILLER_103_1593
*1216 FILLER_103_1605
*1217 FILLER_103_161
*1218 FILLER_103_1617
*1219 FILLER_103_1623
*1220 FILLER_103_1625
*1221 FILLER_103_1637
*1222 FILLER_103_1649
*1223 FILLER_103_1661
*1224 FILLER_103_167
*1225 FILLER_103_1673
*1226 FILLER_103_1679
*1227 FILLER_103_1681
*1228 FILLER_103_169
*1229 FILLER_103_1693
*1230 FILLER_103_1705
*1231 FILLER_103_1717
*1232 FILLER_103_1729
*1233 FILLER_103_1735
*1234 FILLER_103_1737
*1235 FILLER_103_1749
*1236 FILLER_103_1761
*1237 FILLER_103_1773
*1238 FILLER_103_1785
*1239 FILLER_103_1791
*1240 FILLER_103_1793
*1241 FILLER_103_1805
*1242 FILLER_103_181
*1243 FILLER_103_1817
*1244 FILLER_103_1829
*1245 FILLER_103_1841
*1246 FILLER_103_1847
*1247 FILLER_103_1849
*1248 FILLER_103_1861
*1249 FILLER_103_1873
*1250 FILLER_103_1885
*1251 FILLER_103_1897
*1252 FILLER_103_1903
*1253 FILLER_103_1905
*1254 FILLER_103_1917
*1255 FILLER_103_193
*1256 FILLER_103_205
*1257 FILLER_103_217
*1258 FILLER_103_223
*1259 FILLER_103_225
*1260 FILLER_103_237
*1261 FILLER_103_249
*1262 FILLER_103_261
*1263 FILLER_103_27
*1264 FILLER_103_273
*1265 FILLER_103_279
*1266 FILLER_103_281
*1267 FILLER_103_293
*1268 FILLER_103_3
*1269 FILLER_103_305
*1270 FILLER_103_317
*1271 FILLER_103_329
*1272 FILLER_103_335
*1273 FILLER_103_337
*1274 FILLER_103_349
*1275 FILLER_103_361
*1276 FILLER_103_373
*1277 FILLER_103_385
*1278 FILLER_103_39
*1279 FILLER_103_391
*1280 FILLER_103_393
*1281 FILLER_103_405
*1282 FILLER_103_417
*1283 FILLER_103_429
*1284 FILLER_103_441
*1285 FILLER_103_447
*1286 FILLER_103_449
*1287 FILLER_103_461
*1288 FILLER_103_473
*1289 FILLER_103_485
*1290 FILLER_103_497
*1291 FILLER_103_503
*1292 FILLER_103_505
*1293 FILLER_103_51
*1294 FILLER_103_517
*1295 FILLER_103_529
*1296 FILLER_103_541
*1297 FILLER_103_55
*1298 FILLER_103_553
*1299 FILLER_103_559
*1300 FILLER_103_561
*1301 FILLER_103_57
*1302 FILLER_103_573
*1303 FILLER_103_585
*1304 FILLER_103_597
*1305 FILLER_103_609
*1306 FILLER_103_615
*1307 FILLER_103_617
*1308 FILLER_103_629
*1309 FILLER_103_641
*1310 FILLER_103_653
*1311 FILLER_103_665
*1312 FILLER_103_671
*1313 FILLER_103_673
*1314 FILLER_103_685
*1315 FILLER_103_69
*1316 FILLER_103_697
*1317 FILLER_103_709
*1318 FILLER_103_721
*1319 FILLER_103_727
*1320 FILLER_103_729
*1321 FILLER_103_741
*1322 FILLER_103_753
*1323 FILLER_103_765
*1324 FILLER_103_777
*1325 FILLER_103_783
*1326 FILLER_103_785
*1327 FILLER_103_797
*1328 FILLER_103_809
*1329 FILLER_103_81
*1330 FILLER_103_821
*1331 FILLER_103_833
*1332 FILLER_103_839
*1333 FILLER_103_841
*1334 FILLER_103_853
*1335 FILLER_103_865
*1336 FILLER_103_877
*1337 FILLER_103_889
*1338 FILLER_103_895
*1339 FILLER_103_897
*1340 FILLER_103_909
*1341 FILLER_103_921
*1342 FILLER_103_93
*1343 FILLER_103_933
*1344 FILLER_103_945
*1345 FILLER_103_951
*1346 FILLER_103_953
*1347 FILLER_103_965
*1348 FILLER_103_977
*1349 FILLER_103_989
*1350 FILLER_104_1005
*1351 FILLER_104_1017
*1352 FILLER_104_1029
*1353 FILLER_104_1035
*1354 FILLER_104_1037
*1355 FILLER_104_1049
*1356 FILLER_104_1061
*1357 FILLER_104_1073
*1358 FILLER_104_1085
*1359 FILLER_104_109
*1360 FILLER_104_1091
*1361 FILLER_104_1093
*1362 FILLER_104_1105
*1363 FILLER_104_1117
*1364 FILLER_104_1129
*1365 FILLER_104_1141
*1366 FILLER_104_1147
*1367 FILLER_104_1149
*1368 FILLER_104_1161
*1369 FILLER_104_1173
*1370 FILLER_104_1185
*1371 FILLER_104_1197
*1372 FILLER_104_1203
*1373 FILLER_104_1205
*1374 FILLER_104_121
*1375 FILLER_104_1217
*1376 FILLER_104_1229
*1377 FILLER_104_1241
*1378 FILLER_104_1253
*1379 FILLER_104_1259
*1380 FILLER_104_1261
*1381 FILLER_104_1273
*1382 FILLER_104_1285
*1383 FILLER_104_1297
*1384 FILLER_104_1309
*1385 FILLER_104_1315
*1386 FILLER_104_1317
*1387 FILLER_104_1329
*1388 FILLER_104_133
*1389 FILLER_104_1341
*1390 FILLER_104_1353
*1391 FILLER_104_1365
*1392 FILLER_104_1371
*1393 FILLER_104_1373
*1394 FILLER_104_1385
*1395 FILLER_104_139
*1396 FILLER_104_1397
*1397 FILLER_104_1409
*1398 FILLER_104_141
*1399 FILLER_104_1421
*1400 FILLER_104_1427
*1401 FILLER_104_1429
*1402 FILLER_104_1441
*1403 FILLER_104_1453
*1404 FILLER_104_1465
*1405 FILLER_104_1477
*1406 FILLER_104_1483
*1407 FILLER_104_1485
*1408 FILLER_104_1497
*1409 FILLER_104_15
*1410 FILLER_104_1509
*1411 FILLER_104_1521
*1412 FILLER_104_153
*1413 FILLER_104_1533
*1414 FILLER_104_1539
*1415 FILLER_104_1541
*1416 FILLER_104_1553
*1417 FILLER_104_1565
*1418 FILLER_104_1577
*1419 FILLER_104_1589
*1420 FILLER_104_1595
*1421 FILLER_104_1597
*1422 FILLER_104_1609
*1423 FILLER_104_1621
*1424 FILLER_104_1633
*1425 FILLER_104_1645
*1426 FILLER_104_165
*1427 FILLER_104_1651
*1428 FILLER_104_1653
*1429 FILLER_104_1665
*1430 FILLER_104_1677
*1431 FILLER_104_1689
*1432 FILLER_104_1701
*1433 FILLER_104_1707
*1434 FILLER_104_1709
*1435 FILLER_104_1721
*1436 FILLER_104_1733
*1437 FILLER_104_1745
*1438 FILLER_104_1757
*1439 FILLER_104_1763
*1440 FILLER_104_1765
*1441 FILLER_104_177
*1442 FILLER_104_1777
*1443 FILLER_104_1789
*1444 FILLER_104_1801
*1445 FILLER_104_1813
*1446 FILLER_104_1819
*1447 FILLER_104_1821
*1448 FILLER_104_1833
*1449 FILLER_104_1845
*1450 FILLER_104_1857
*1451 FILLER_104_1869
*1452 FILLER_104_1875
*1453 FILLER_104_1877
*1454 FILLER_104_1889
*1455 FILLER_104_189
*1456 FILLER_104_1901
*1457 FILLER_104_1913
*1458 FILLER_104_1925
*1459 FILLER_104_195
*1460 FILLER_104_197
*1461 FILLER_104_209
*1462 FILLER_104_221
*1463 FILLER_104_233
*1464 FILLER_104_245
*1465 FILLER_104_251
*1466 FILLER_104_253
*1467 FILLER_104_265
*1468 FILLER_104_27
*1469 FILLER_104_277
*1470 FILLER_104_289
*1471 FILLER_104_29
*1472 FILLER_104_3
*1473 FILLER_104_301
*1474 FILLER_104_307
*1475 FILLER_104_309
*1476 FILLER_104_321
*1477 FILLER_104_333
*1478 FILLER_104_345
*1479 FILLER_104_357
*1480 FILLER_104_363
*1481 FILLER_104_365
*1482 FILLER_104_377
*1483 FILLER_104_389
*1484 FILLER_104_401
*1485 FILLER_104_41
*1486 FILLER_104_413
*1487 FILLER_104_419
*1488 FILLER_104_421
*1489 FILLER_104_433
*1490 FILLER_104_445
*1491 FILLER_104_457
*1492 FILLER_104_469
*1493 FILLER_104_475
*1494 FILLER_104_477
*1495 FILLER_104_489
*1496 FILLER_104_501
*1497 FILLER_104_513
*1498 FILLER_104_525
*1499 FILLER_104_53
*1500 FILLER_104_531
*1501 FILLER_104_533
*1502 FILLER_104_545
*1503 FILLER_104_557
*1504 FILLER_104_569
*1505 FILLER_104_581
*1506 FILLER_104_587
*1507 FILLER_104_589
*1508 FILLER_104_601
*1509 FILLER_104_613
*1510 FILLER_104_625