*SPEF "ieee 1481-1999"
*DESIGN "user_proj_example"
*DATE "11:11:11 Fri 11 11, 1111"
*VENDOR "OpenRCX"
*PROGRAM "Parallel Extraction"
*VERSION "1.0"
*DESIGN_FLOW "NAME_SCOPE LOCAL" "PIN_CAP NONE"
*DIVIDER /
*DELIMITER :
*BUS_DELIMITER []
*T_UNIT 1 NS
*C_UNIT 1 PF
*R_UNIT 1 OHM
*L_UNIT 1 HENRY

*NAME_MAP
*1 io_in[0]
*2 io_in[10]
*3 io_in[11]
*4 io_in[12]
*5 io_in[13]
*6 io_in[14]
*7 io_in[15]
*8 io_in[16]
*9 io_in[17]
*10 io_in[18]
*11 io_in[19]
*12 io_in[1]
*13 io_in[20]
*14 io_in[21]
*15 io_in[22]
*16 io_in[23]
*17 io_in[24]
*18 io_in[25]
*19 io_in[26]
*20 io_in[27]
*21 io_in[28]
*22 io_in[29]
*23 io_in[2]
*24 io_in[30]
*25 io_in[31]
*26 io_in[32]
*27 io_in[33]
*28 io_in[34]
*29 io_in[35]
*30 io_in[36]
*31 io_in[37]
*32 io_in[3]
*33 io_in[4]
*34 io_in[5]
*35 io_in[6]
*36 io_in[7]
*37 io_in[8]
*38 io_in[9]
*39 io_oeb[0]
*40 io_oeb[10]
*41 io_oeb[11]
*42 io_oeb[12]
*43 io_oeb[13]
*44 io_oeb[14]
*45 io_oeb[15]
*46 io_oeb[16]
*47 io_oeb[17]
*48 io_oeb[18]
*49 io_oeb[19]
*50 io_oeb[1]
*51 io_oeb[20]
*52 io_oeb[21]
*53 io_oeb[22]
*54 io_oeb[23]
*55 io_oeb[24]
*56 io_oeb[25]
*57 io_oeb[26]
*58 io_oeb[27]
*59 io_oeb[28]
*60 io_oeb[29]
*61 io_oeb[2]
*62 io_oeb[30]
*63 io_oeb[31]
*64 io_oeb[32]
*65 io_oeb[33]
*66 io_oeb[34]
*67 io_oeb[35]
*68 io_oeb[36]
*69 net63
*70 io_oeb[3]
*71 io_oeb[4]
*72 io_oeb[5]
*73 io_oeb[6]
*74 io_oeb[7]
*75 io_oeb[8]
*76 io_oeb[9]
*77 io_out[0]
*78 net72
*79 net73
*80 net74
*81 net75
*82 net76
*83 net77
*84 net78
*85 net79
*86 net80
*87 net81
*88 net64
*89 net82
*90 net83
*91 net84
*92 net85
*93 net86
*94 net87
*95 net88
*96 net89
*97 net90
*98 net91
*99 net65
*100 net92
*101 net93
*102 net94
*103 net95
*104 net96
*105 net97
*106 net98
*107 net99
*108 net66
*109 net67
*110 net68
*111 net69
*112 net70
*113 io_out[8]
*114 net71
*115 net100
*116 net101
*117 net102
*118 la_data_in[0]
*119 la_data_in[100]
*120 la_data_in[101]
*121 la_data_in[102]
*122 la_data_in[103]
*123 la_data_in[104]
*124 la_data_in[105]
*125 la_data_in[106]
*126 la_data_in[107]
*127 la_data_in[108]
*128 la_data_in[109]
*129 la_data_in[10]
*130 la_data_in[110]
*131 la_data_in[111]
*132 la_data_in[112]
*133 la_data_in[113]
*134 la_data_in[114]
*135 la_data_in[115]
*136 la_data_in[116]
*137 la_data_in[117]
*138 la_data_in[118]
*139 la_data_in[119]
*140 la_data_in[11]
*141 la_data_in[120]
*142 la_data_in[121]
*143 la_data_in[122]
*144 la_data_in[123]
*145 la_data_in[124]
*146 la_data_in[125]
*147 la_data_in[126]
*148 la_data_in[127]
*149 la_data_in[12]
*150 la_data_in[13]
*151 la_data_in[14]
*152 la_data_in[15]
*153 la_data_in[16]
*154 la_data_in[17]
*155 la_data_in[18]
*156 la_data_in[19]
*157 la_data_in[1]
*158 la_data_in[20]
*159 la_data_in[21]
*160 la_data_in[22]
*161 la_data_in[23]
*162 la_data_in[24]
*163 la_data_in[25]
*164 la_data_in[26]
*165 la_data_in[27]
*166 la_data_in[28]
*167 la_data_in[29]
*168 la_data_in[2]
*169 la_data_in[30]
*170 la_data_in[31]
*171 la_data_in[32]
*172 la_data_in[33]
*173 la_data_in[34]
*174 la_data_in[35]
*175 la_data_in[36]
*176 la_data_in[37]
*177 la_data_in[38]
*178 la_data_in[39]
*179 la_data_in[3]
*180 la_data_in[40]
*181 la_data_in[41]
*182 la_data_in[42]
*183 la_data_in[43]
*184 la_data_in[44]
*185 la_data_in[45]
*186 la_data_in[46]
*187 la_data_in[47]
*188 la_data_in[48]
*189 la_data_in[49]
*190 la_data_in[4]
*191 la_data_in[50]
*192 la_data_in[51]
*193 la_data_in[52]
*194 la_data_in[53]
*195 la_data_in[54]
*196 la_data_in[55]
*197 la_data_in[56]
*198 la_data_in[57]
*199 la_data_in[58]
*200 la_data_in[59]
*201 la_data_in[5]
*202 la_data_in[60]
*203 la_data_in[61]
*204 la_data_in[62]
*205 la_data_in[63]
*206 la_data_in[64]
*207 la_data_in[65]
*208 la_data_in[66]
*209 la_data_in[67]
*210 la_data_in[68]
*211 la_data_in[69]
*212 la_data_in[6]
*213 la_data_in[70]
*214 la_data_in[71]
*215 la_data_in[72]
*216 la_data_in[73]
*217 la_data_in[74]
*218 la_data_in[75]
*219 la_data_in[76]
*220 la_data_in[77]
*221 la_data_in[78]
*222 la_data_in[79]
*223 la_data_in[7]
*224 la_data_in[80]
*225 la_data_in[81]
*226 la_data_in[82]
*227 la_data_in[83]
*228 la_data_in[84]
*229 la_data_in[85]
*230 la_data_in[86]
*231 la_data_in[87]
*232 la_data_in[88]
*233 la_data_in[89]
*234 la_data_in[8]
*235 la_data_in[90]
*236 la_data_in[91]
*237 la_data_in[92]
*238 la_data_in[93]
*239 la_data_in[94]
*240 la_data_in[95]
*241 la_data_in[96]
*242 la_data_in[97]
*243 la_data_in[98]
*244 la_data_in[99]
*245 la_data_in[9]
*246 la_data_out[0]
*247 net201
*248 net202
*249 net203
*250 net204
*251 net205
*252 net206
*253 net207
*254 net208
*255 net209
*256 net210
*257 net111
*258 net211
*259 net212
*260 net213
*261 net214
*262 net215
*263 net216
*264 net217
*265 net218
*266 net219
*267 net220
*268 net112
*269 net221
*270 net222
*271 net223
*272 net224
*273 net225
*274 net226
*275 net227
*276 net228
*277 net113
*278 net114
*279 net115
*280 net116
*281 net117
*282 net118
*283 net119
*284 net120
*285 net103
*286 net121
*287 net122
*288 net123
*289 net124
*290 net125
*291 net126
*292 net127
*293 net128
*294 net129
*295 net130
*296 net104
*297 net131
*298 net132
*299 net133
*300 net134
*301 net135
*302 net136
*303 net137
*304 net138
*305 net139
*306 net140
*307 net105
*308 net141
*309 net142
*310 net143
*311 net144
*312 net145
*313 net146
*314 net147
*315 net148
*316 net149
*317 net150
*318 net106
*319 net151
*320 net152
*321 net153
*322 net154
*323 net155
*324 net156
*325 net157
*326 net158
*327 net159
*328 net160
*329 net107
*330 net161
*331 net162
*332 net163
*333 net164
*334 net165
*335 net166
*336 net167
*337 net168
*338 net169
*339 net170
*340 net108
*341 net171
*342 net172
*343 net173
*344 net174
*345 net175
*346 net176
*347 net177
*348 net178
*349 net179
*350 net180
*351 net109
*352 net181
*353 net182
*354 net183
*355 net184
*356 net185
*357 net186
*358 net187
*359 net188
*360 net189
*361 net190
*362 la_data_out[8]
*363 net191
*364 net192
*365 net193
*366 net194
*367 net195
*368 net196
*369 net197
*370 net198
*371 net199
*372 net200
*373 net110
*374 la_oenb[0]
*375 la_oenb[100]
*376 la_oenb[101]
*377 la_oenb[102]
*378 la_oenb[103]
*379 la_oenb[104]
*380 la_oenb[105]
*381 la_oenb[106]
*382 la_oenb[107]
*383 la_oenb[108]
*384 la_oenb[109]
*385 la_oenb[10]
*386 la_oenb[110]
*387 la_oenb[111]
*388 la_oenb[112]
*389 la_oenb[113]
*390 la_oenb[114]
*391 la_oenb[115]
*392 la_oenb[116]
*393 la_oenb[117]
*394 la_oenb[118]
*395 la_oenb[119]
*396 la_oenb[11]
*397 la_oenb[120]
*398 la_oenb[121]
*399 la_oenb[122]
*400 la_oenb[123]
*401 la_oenb[124]
*402 la_oenb[125]
*403 la_oenb[126]
*404 la_oenb[127]
*405 la_oenb[12]
*406 la_oenb[13]
*407 la_oenb[14]
*408 la_oenb[15]
*409 la_oenb[16]
*410 la_oenb[17]
*411 la_oenb[18]
*412 la_oenb[19]
*413 la_oenb[1]
*414 la_oenb[20]
*415 la_oenb[21]
*416 la_oenb[22]
*417 la_oenb[23]
*418 la_oenb[24]
*419 la_oenb[25]
*420 la_oenb[26]
*421 la_oenb[27]
*422 la_oenb[28]
*423 la_oenb[29]
*424 la_oenb[2]
*425 la_oenb[30]
*426 la_oenb[31]
*427 la_oenb[32]
*428 la_oenb[33]
*429 la_oenb[34]
*430 la_oenb[35]
*431 la_oenb[36]
*432 la_oenb[37]
*433 la_oenb[38]
*434 la_oenb[39]
*435 la_oenb[3]
*436 la_oenb[40]
*437 la_oenb[41]
*438 la_oenb[42]
*439 la_oenb[43]
*440 la_oenb[44]
*441 la_oenb[45]
*442 la_oenb[46]
*443 la_oenb[47]
*444 la_oenb[48]
*445 la_oenb[49]
*446 la_oenb[4]
*447 la_oenb[50]
*448 la_oenb[51]
*449 la_oenb[52]
*450 la_oenb[53]
*451 la_oenb[54]
*452 la_oenb[55]
*453 la_oenb[56]
*454 la_oenb[57]
*455 la_oenb[58]
*456 la_oenb[59]
*457 la_oenb[5]
*458 la_oenb[60]
*459 la_oenb[61]
*460 la_oenb[62]
*461 la_oenb[63]
*462 la_oenb[64]
*463 la_oenb[65]
*464 la_oenb[66]
*465 la_oenb[67]
*466 la_oenb[68]
*467 la_oenb[69]
*468 la_oenb[6]
*469 la_oenb[70]
*470 la_oenb[71]
*471 la_oenb[72]
*472 la_oenb[73]
*473 la_oenb[74]
*474 la_oenb[75]
*475 la_oenb[76]
*476 la_oenb[77]
*477 la_oenb[78]
*478 la_oenb[79]
*479 la_oenb[7]
*480 la_oenb[80]
*481 la_oenb[81]
*482 la_oenb[82]
*483 la_oenb[83]
*484 la_oenb[84]
*485 la_oenb[85]
*486 la_oenb[86]
*487 la_oenb[87]
*488 la_oenb[88]
*489 la_oenb[89]
*490 la_oenb[8]
*491 la_oenb[90]
*492 la_oenb[91]
*493 la_oenb[92]
*494 la_oenb[93]
*495 la_oenb[94]
*496 la_oenb[95]
*497 la_oenb[96]
*498 la_oenb[97]
*499 la_oenb[98]
*500 la_oenb[99]
*501 la_oenb[9]
*504 wb_clk_i
*505 wb_rst_i
*506 wbs_ack_o
*507 wbs_adr_i[0]
*508 wbs_adr_i[10]
*509 wbs_adr_i[11]
*510 wbs_adr_i[12]
*511 wbs_adr_i[13]
*512 wbs_adr_i[14]
*513 wbs_adr_i[15]
*514 wbs_adr_i[16]
*515 wbs_adr_i[17]
*516 wbs_adr_i[18]
*517 wbs_adr_i[19]
*518 wbs_adr_i[1]
*519 wbs_adr_i[20]
*520 wbs_adr_i[21]
*521 wbs_adr_i[22]
*522 wbs_adr_i[23]
*523 wbs_adr_i[24]
*524 wbs_adr_i[25]
*525 wbs_adr_i[26]
*526 wbs_adr_i[27]
*527 wbs_adr_i[28]
*528 wbs_adr_i[29]
*529 wbs_adr_i[2]
*530 wbs_adr_i[30]
*531 wbs_adr_i[31]
*532 wbs_adr_i[3]
*533 wbs_adr_i[4]
*534 wbs_adr_i[5]
*535 wbs_adr_i[6]
*536 wbs_adr_i[7]
*537 wbs_adr_i[8]
*538 wbs_adr_i[9]
*539 wbs_cyc_i
*540 wbs_dat_i[0]
*541 wbs_dat_i[10]
*542 wbs_dat_i[11]
*543 wbs_dat_i[12]
*544 wbs_dat_i[13]
*545 wbs_dat_i[14]
*546 wbs_dat_i[15]
*547 wbs_dat_i[16]
*548 wbs_dat_i[17]
*549 wbs_dat_i[18]
*550 wbs_dat_i[19]
*551 wbs_dat_i[1]
*552 wbs_dat_i[20]
*553 wbs_dat_i[21]
*554 wbs_dat_i[22]
*555 wbs_dat_i[23]
*556 wbs_dat_i[24]
*557 wbs_dat_i[25]
*558 wbs_dat_i[26]
*559 wbs_dat_i[27]
*560 wbs_dat_i[28]
*561 wbs_dat_i[29]
*562 wbs_dat_i[2]
*563 wbs_dat_i[30]
*564 wbs_dat_i[31]
*565 wbs_dat_i[3]
*566 wbs_dat_i[4]
*567 wbs_dat_i[5]
*568 wbs_dat_i[6]
*569 wbs_dat_i[7]
*570 wbs_dat_i[8]
*571 wbs_dat_i[9]
*572 wbs_dat_o[0]
*573 net238
*574 net239
*575 net240
*576 net241
*577 net242
*578 net243
*579 net244
*580 net245
*581 net246
*582 net247
*583 net229
*584 net248
*585 net249
*586 net250
*587 net251
*588 net252
*589 net253
*590 net254
*591 net255
*592 net256
*593 net257
*594 net230
*595 net258
*596 net259
*597 net231
*598 net232
*599 net233
*600 net234
*601 net235
*602 net236
*603 net237
*604 wbs_sel_i[0]
*605 wbs_sel_i[1]
*606 wbs_sel_i[2]
*607 wbs_sel_i[3]
*608 wbs_stb_i
*609 wbs_we_i
*610 CONTROLLER\.a_cycle\[0\]
*611 CONTROLLER\.a_cycle\[1\]
*612 CONTROLLER\.a_cycle\[2\]
*613 CONTROLLER\.r_i_address\[1\]
*614 CONTROLLER\.r_i_address\[2\]
*615 CONTROLLER\.r_i_address\[3\]
*616 CONTROLLER\.r_i_address\[4\]
*617 CONTROLLER\.r_i_address\[5\]
*618 CONTROLLER\.r_i_address\[6\]
*619 CONTROLLER\.r_i_address\[7\]
*620 CONTROLLER\.state\[0\]
*621 CONTROLLER\.state\[1\]
*622 CONTROLLER\.state\[2\]
*623 CONTROLLER\.x_cycle\[0\]
*624 CONTROLLER\.x_cycle\[1\]
*625 CONTROLLER\.x_cycle\[2\]
*626 CONTROLLER\.x_cycle\[3\]
*627 _000_
*628 _001_
*629 _002_
*630 _003_
*631 _004_
*632 _005_
*633 _006_
*634 _007_
*635 _008_
*636 _009_
*637 _010_
*638 _011_
*639 _012_
*640 _013_
*641 _014_
*642 _015_
*643 _016_
*644 _017_
*645 _018_
*646 _019_
*647 _020_
*648 _021_
*649 _022_
*650 _023_
*651 _024_
*652 _025_
*653 _026_
*654 _027_
*655 _028_
*656 _029_
*657 _030_
*658 _031_
*659 _032_
*660 _033_
*661 _034_
*662 _035_
*663 _036_
*664 _037_
*665 _038_
*666 _039_
*667 _040_
*668 _041_
*669 _042_
*670 _043_
*671 _044_
*672 _045_
*673 _046_
*674 _047_
*675 _048_
*676 _049_
*677 _050_
*678 _051_
*679 _052_
*680 _053_
*681 _054_
*682 _055_
*683 _056_
*684 _057_
*685 _058_
*686 _059_
*687 _060_
*688 _061_
*689 _062_
*690 _063_
*691 _064_
*692 _065_
*693 _066_
*694 _067_
*695 _068_
*696 _069_
*697 _070_
*698 _071_
*699 _072_
*700 _073_
*701 _074_
*702 _075_
*703 _076_
*704 _077_
*705 _078_
*706 _079_
*707 _080_
*708 _081_
*709 _082_
*710 _083_
*711 _084_
*712 _085_
*713 _086_
*714 _087_
*715 _088_
*716 _089_
*717 _090_
*718 _091_
*719 _092_
*720 _093_
*721 _094_
*722 _095_
*723 _096_
*724 _097_
*725 _098_
*726 _099_
*727 _100_
*728 _101_
*729 _102_
*730 _103_
*731 _104_
*732 _105_
*733 _106_
*734 _107_
*735 _108_
*736 _109_
*737 _110_
*738 clknet_0_net58
*739 clknet_1_0_0_net58
*740 clknet_1_0_1_net58
*741 clknet_1_1_0_net58
*742 clknet_1_1_1_net58
*743 net1
*744 net10
*745 net11
*746 net12
*747 net13
*748 net14
*749 net15
*750 net16
*751 net17
*752 net18
*753 net19
*754 net2
*755 net20
*756 net21
*757 net22
*758 net23
*759 net24
*760 net25
*761 net26
*762 net260
*763 net261
*764 net27
*765 net28
*766 net29
*767 net3
*768 net30
*769 net31
*770 net32
*771 net33
*772 net34
*773 net35
*774 net36
*775 net37
*776 net38
*777 net39
*778 net4
*779 net40
*780 net41
*781 net42
*782 net43
*783 net44
*784 net45
*785 net46
*786 net47
*787 net48
*788 net49
*789 net5
*790 net50
*791 net51
*792 net52
*793 net53
*794 net54
*795 net55
*796 net56
*797 net57
*798 net58
*799 net59
*800 net6
*801 net60
*802 net61
*803 net62
*804 net7
*805 net8
*806 net9
*807 ANTENNA__111__A1
*808 ANTENNA__125__A
*809 ANTENNA__127__B1
*810 ANTENNA__129__A1
*811 ANTENNA__129__B1_N
*812 ANTENNA__130__B1
*813 ANTENNA__139__C
*814 ANTENNA__141__A2
*815 ANTENNA__146__A
*816 ANTENNA__146__B
*817 ANTENNA__149__A0
*818 ANTENNA__149__A1
*819 ANTENNA__149__S
*820 ANTENNA__170__A
*821 ANTENNA__172__A0
*822 ANTENNA__177__A0
*823 ANTENNA__180__B1
*824 ANTENNA__181__B1
*825 ANTENNA__183__A1
*826 ANTENNA__183__B1
*827 ANTENNA__185__A
*828 ANTENNA__186__A1
*829 ANTENNA__186__B1
*830 ANTENNA__187__A1
*831 ANTENNA__191__A
*832 ANTENNA__195__A
*833 ANTENNA__201__B1
*834 ANTENNA__204__A1
*835 ANTENNA__206__A
*836 ANTENNA__207__B
*837 ANTENNA__212__A1
*838 ANTENNA__214__B
*839 ANTENNA__215__B
*840 ANTENNA__223__B2
*841 ANTENNA__224__CLK
*842 ANTENNA__225__CLK
*843 ANTENNA__226__CLK
*844 ANTENNA__227__CLK
*845 ANTENNA__228__CLK
*846 ANTENNA__229__CLK
*847 ANTENNA__230__CLK
*848 ANTENNA__231__CLK
*849 ANTENNA__232__CLK
*850 ANTENNA__233__CLK
*851 ANTENNA__234__CLK
*852 ANTENNA__235__CLK
*853 ANTENNA__236__CLK
*854 ANTENNA__237__CLK
*855 ANTENNA__238__CLK
*856 ANTENNA__239__CLK
*857 ANTENNA__240__CLK
*858 ANTENNA__241__CLK
*859 ANTENNA__242__CLK
*860 ANTENNA__243__CLK
*861 ANTENNA__441__A
*862 ANTENNA__442__A
*863 ANTENNA__443__A
*864 ANTENNA__444__A
*865 ANTENNA__445__A
*866 ANTENNA__446__A
*867 ANTENNA__447__A
*868 ANTENNA__448__A
*869 ANTENNA__449__A
*870 ANTENNA__450__A
*871 ANTENNA__451__A
*872 ANTENNA__452__A
*873 ANTENNA__453__A
*874 ANTENNA__454__A
*875 ANTENNA__455__A
*876 ANTENNA__456__A
*877 ANTENNA__457__A
*878 ANTENNA__458__A
*879 ANTENNA__459__A
*880 ANTENNA__460__A
*881 ANTENNA__461__A
*882 ANTENNA__462__A
*883 ANTENNA__463__A
*884 ANTENNA__464__A
*885 ANTENNA__465__A
*886 ANTENNA__466__A
*887 ANTENNA__467__A
*888 ANTENNA__468__A
*889 ANTENNA__469__A
*890 ANTENNA__470__A
*891 ANTENNA__471__A
*892 ANTENNA__472__A
*893 ANTENNA__473__A
*894 ANTENNA__474__A
*895 ANTENNA__475__A
*896 ANTENNA__476__A
*897 ANTENNA__477__A
*898 ANTENNA__478__A
*899 ANTENNA_clkbuf_0_net58_A
*900 ANTENNA_input10_A
*901 ANTENNA_input11_A
*902 ANTENNA_input12_A
*903 ANTENNA_input13_A
*904 ANTENNA_input14_A
*905 ANTENNA_input15_A
*906 ANTENNA_input16_A
*907 ANTENNA_input17_A
*908 ANTENNA_input18_A
*909 ANTENNA_input19_A
*910 ANTENNA_input1_A
*911 ANTENNA_input2_A
*912 ANTENNA_input3_A
*913 ANTENNA_input4_A
*914 ANTENNA_input5_A
*915 ANTENNA_input6_A
*916 ANTENNA_input7_A
*917 ANTENNA_input8_A
*918 ANTENNA_input9_A
*919 ANTENNA_output49_A
*920 ANTENNA_output57_A
*921 ANTENNA_output58_A
*922 ANTENNA_output59_A
*923 FILLER_0_1001
*924 FILLER_0_1007
*925 FILLER_0_1009
*926 FILLER_0_101
*927 FILLER_0_1013
*928 FILLER_0_1021
*929 FILLER_0_1025
*930 FILLER_0_1033
*931 FILLER_0_1040
*932 FILLER_0_1044
*933 FILLER_0_1048
*934 FILLER_0_1056
*935 FILLER_0_1060
*936 FILLER_0_1065
*937 FILLER_0_1072
*938 FILLER_0_108
*939 FILLER_0_1080
*940 FILLER_0_1084
*941 FILLER_0_1096
*942 FILLER_0_1104
*943 FILLER_0_1108
*944 FILLER_0_1124
*945 FILLER_0_1128
*946 FILLER_0_1132
*947 FILLER_0_1140
*948 FILLER_0_1144
*949 FILLER_0_1149
*950 FILLER_0_1156
*951 FILLER_0_1167
*952 FILLER_0_1175
*953 FILLER_0_1177
*954 FILLER_0_1187
*955 FILLER_0_1197
*956 FILLER_0_12
*957 FILLER_0_1203
*958 FILLER_0_1208
*959 FILLER_0_1215
*960 FILLER_0_1222
*961 FILLER_0_1230
*962 FILLER_0_1236
*963 FILLER_0_1243
*964 FILLER_0_1247
*965 FILLER_0_1251
*966 FILLER_0_1259
*967 FILLER_0_1264
*968 FILLER_0_1275
*969 FILLER_0_1287
*970 FILLER_0_129
*971 FILLER_0_1292
*972 FILLER_0_1299
*973 FILLER_0_1310
*974 FILLER_0_1317
*975 FILLER_0_1322
*976 FILLER_0_1330
*977 FILLER_0_1334
*978 FILLER_0_1342
*979 FILLER_0_1348
*980 FILLER_0_1354
*981 FILLER_0_1358
*982 FILLER_0_136
*983 FILLER_0_1370
*984 FILLER_0_1376
*985 FILLER_0_1383
*986 FILLER_0_1394
*987 FILLER_0_1401
*988 FILLER_0_1406
*989 FILLER_0_1414
*990 FILLER_0_1418
*991 FILLER_0_1426
*992 FILLER_0_1432
*993 FILLER_0_1441
*994 FILLER_0_1453
*995 FILLER_0_1460
*996 FILLER_0_1467
*997 FILLER_0_1473
*998 FILLER_0_1477
*999 FILLER_0_148
*1000 FILLER_0_1483
*1001 FILLER_0_1485
*1002 FILLER_0_1489
*1003 FILLER_0_1497
*1004 FILLER_0_1501
*1005 FILLER_0_1509
*1006 FILLER_0_1516
*1007 FILLER_0_1525
*1008 FILLER_0_1537
*1009 FILLER_0_1544
*1010 FILLER_0_1551
*1011 FILLER_0_1560
*1012 FILLER_0_1572
*1013 FILLER_0_1580
*1014 FILLER_0_1584
*1015 FILLER_0_159
*1016 FILLER_0_1600
*1017 FILLER_0_1604
*1018 FILLER_0_1608
*1019 FILLER_0_1616
*1020 FILLER_0_1620
*1021 FILLER_0_1625
*1022 FILLER_0_1632
*1023 FILLER_0_1640
*1024 FILLER_0_1644
*1025 FILLER_0_1656
*1026 FILLER_0_1664
*1027 FILLER_0_1668
*1028 FILLER_0_167
*1029 FILLER_0_1684
*1030 FILLER_0_1691
*1031 FILLER_0_1699
*1032 FILLER_0_1703
*1033 FILLER_0_1707
*1034 FILLER_0_1709
*1035 FILLER_0_1715
*1036 FILLER_0_172
*1037 FILLER_0_1723
*1038 FILLER_0_1727
*1039 FILLER_0_1735
*1040 FILLER_0_1740
*1041 FILLER_0_1751
*1042 FILLER_0_1763
*1043 FILLER_0_1768
*1044 FILLER_0_1775
*1045 FILLER_0_1783
*1046 FILLER_0_1787
*1047 FILLER_0_179
*1048 FILLER_0_1791
*1049 FILLER_0_1793
*1050 FILLER_0_1799
*1051 FILLER_0_1807
*1052 FILLER_0_1811
*1053 FILLER_0_1819
*1054 FILLER_0_1824
*1055 FILLER_0_1830
*1056 FILLER_0_1834
*1057 FILLER_0_1846
*1058 FILLER_0_1852
*1059 FILLER_0_1859
*1060 FILLER_0_186
*1061 FILLER_0_1870
*1062 FILLER_0_1877
*1063 FILLER_0_1882
*1064 FILLER_0_1890
*1065 FILLER_0_1894
*1066 FILLER_0_1902
*1067 FILLER_0_1908
*1068 FILLER_0_1914
*1069 FILLER_0_1918
*1070 FILLER_0_192
*1071 FILLER_0_1925
*1072 FILLER_0_200
*1073 FILLER_0_207
*1074 FILLER_0_214
*1075 FILLER_0_220
*1076 FILLER_0_228
*1077 FILLER_0_235
*1078 FILLER_0_239
*1079 FILLER_0_24
*1080 FILLER_0_243
*1081 FILLER_0_251
*1082 FILLER_0_256
*1083 FILLER_0_262
*1084 FILLER_0_266
*1085 FILLER_0_278
*1086 FILLER_0_284
*1087 FILLER_0_29
*1088 FILLER_0_291
*1089 FILLER_0_302
*1090 FILLER_0_309
*1091 FILLER_0_314
*1092 FILLER_0_322
*1093 FILLER_0_326
*1094 FILLER_0_334
*1095 FILLER_0_340
*1096 FILLER_0_346
*1097 FILLER_0_350
*1098 FILLER_0_362
*1099 FILLER_0_368
*1100 FILLER_0_375
*1101 FILLER_0_381
*1102 FILLER_0_385
*1103 FILLER_0_39
*1104 FILLER_0_391
*1105 FILLER_0_393
*1106 FILLER_0_397
*1107 FILLER_0_406
*1108 FILLER_0_414
*1109 FILLER_0_425
*1110 FILLER_0_432
*1111 FILLER_0_441
*1112 FILLER_0_447
*1113 FILLER_0_449
*1114 FILLER_0_453
*1115 FILLER_0_461
*1116 FILLER_0_465
*1117 FILLER_0_473
*1118 FILLER_0_480
*1119 FILLER_0_489
*1120 FILLER_0_501
*1121 FILLER_0_508
*1122 FILLER_0_515
*1123 FILLER_0_52
*1124 FILLER_0_524
*1125 FILLER_0_536
*1126 FILLER_0_544
*1127 FILLER_0_548
*1128 FILLER_0_564
*1129 FILLER_0_568
*1130 FILLER_0_572
*1131 FILLER_0_580
*1132 FILLER_0_584
*1133 FILLER_0_589
*1134 FILLER_0_596
*1135 FILLER_0_60
*1136 FILLER_0_604
*1137 FILLER_0_608
*1138 FILLER_0_620
*1139 FILLER_0_628
*1140 FILLER_0_632
*1141 FILLER_0_648
*1142 FILLER_0_655
*1143 FILLER_0_663
*1144 FILLER_0_667
*1145 FILLER_0_671
*1146 FILLER_0_673
*1147 FILLER_0_679
*1148 FILLER_0_687
*1149 FILLER_0_691
*1150 FILLER_0_699
*1151 FILLER_0_704
*1152 FILLER_0_715
*1153 FILLER_0_727
*1154 FILLER_0_732
*1155 FILLER_0_739
*1156 FILLER_0_747
*1157 FILLER_0_751
*1158 FILLER_0_755
*1159 FILLER_0_757
*1160 FILLER_0_763
*1161 FILLER_0_771
*1162 FILLER_0_775
*1163 FILLER_0_783
*1164 FILLER_0_788
*1165 FILLER_0_795
*1166 FILLER_0_80
*1167 FILLER_0_805
*1168 FILLER_0_811
*1169 FILLER_0_816
*1170 FILLER_0_823
*1171 FILLER_0_834
*1172 FILLER_0_841
*1173 FILLER_0_846
*1174 FILLER_0_854
*1175 FILLER_0_858
*1176 FILLER_0_866
*1177 FILLER_0_872
*1178 FILLER_0_878
*1179 FILLER_0_882
*1180 FILLER_0_894
*1181 FILLER_0_900
*1182 FILLER_0_907
*1183 FILLER_0_913
*1184 FILLER_0_917
*1185 FILLER_0_923
*1186 FILLER_0_925
*1187 FILLER_0_929
*1188 FILLER_0_937
*1189 FILLER_0_941
*1190 FILLER_0_949
*1191 FILLER_0_956
*1192 FILLER_0_965
*1193 FILLER_0_977
*1194 FILLER_0_984
*1195 FILLER_0_991
*1196 FILLER_0_997
*1197 FILLER_100_1005
*1198 FILLER_100_1017
*1199 FILLER_100_1029
*1200 FILLER_100_1035
*1201 FILLER_100_1037
*1202 FILLER_100_1049
*1203 FILLER_100_1061
*1204 FILLER_100_1073
*1205 FILLER_100_1085
*1206 FILLER_100_109
*1207 FILLER_100_1091
*1208 FILLER_100_1093
*1209 FILLER_100_1105
*1210 FILLER_100_1117
*1211 FILLER_100_1129
*1212 FILLER_100_1141
*1213 FILLER_100_1147
*1214 FILLER_100_1149
*1215 FILLER_100_1161
*1216 FILLER_100_1173
*1217 FILLER_100_1185
*1218 FILLER_100_1197
*1219 FILLER_100_1203
*1220 FILLER_100_1205
*1221 FILLER_100_121
*1222 FILLER_100_1217
*1223 FILLER_100_1229
*1224 FILLER_100_1241
*1225 FILLER_100_1253
*1226 FILLER_100_1259
*1227 FILLER_100_1261
*1228 FILLER_100_1273
*1229 FILLER_100_1285
*1230 FILLER_100_1297
*1231 FILLER_100_1309
*1232 FILLER_100_1315
*1233 FILLER_100_1317
*1234 FILLER_100_1329
*1235 FILLER_100_133
*1236 FILLER_100_1341
*1237 FILLER_100_1353
*1238 FILLER_100_1365
*1239 FILLER_100_1371
*1240 FILLER_100_1373
*1241 FILLER_100_1385
*1242 FILLER_100_139
*1243 FILLER_100_1397
*1244 FILLER_100_1409
*1245 FILLER_100_141
*1246 FILLER_100_1421
*1247 FILLER_100_1427
*1248 FILLER_100_1429
*1249 FILLER_100_1441
*1250 FILLER_100_1453
*1251 FILLER_100_1465
*1252 FILLER_100_1477
*1253 FILLER_100_1483
*1254 FILLER_100_1485
*1255 FILLER_100_1497
*1256 FILLER_100_15
*1257 FILLER_100_1509
*1258 FILLER_100_1521
*1259 FILLER_100_153
*1260 FILLER_100_1533
*1261 FILLER_100_1539
*1262 FILLER_100_1541
*1263 FILLER_100_1553
*1264 FILLER_100_1565
*1265 FILLER_100_1577
*1266 FILLER_100_1589
*1267 FILLER_100_1595
*1268 FILLER_100_1597
*1269 FILLER_100_1609
*1270 FILLER_100_1621
*1271 FILLER_100_1633
*1272 FILLER_100_1645
*1273 FILLER_100_165
*1274 FILLER_100_1651
*1275 FILLER_100_1653
*1276 FILLER_100_1665
*1277 FILLER_100_1677
*1278 FILLER_100_1689
*1279 FILLER_100_1701
*1280 FILLER_100_1707
*1281 FILLER_100_1709
*1282 FILLER_100_1721
*1283 FILLER_100_1733
*1284 FILLER_100_1745
*1285 FILLER_100_1757
*1286 FILLER_100_1763
*1287 FILLER_100_1765
*1288 FILLER_100_177
*1289 FILLER_100_1777
*1290 FILLER_100_1789
*1291 FILLER_100_1801
*1292 FILLER_100_1813
*1293 FILLER_100_1819
*1294 FILLER_100_1821
*1295 FILLER_100_1833
*1296 FILLER_100_1845
*1297 FILLER_100_1857
*1298 FILLER_100_1869
*1299 FILLER_100_1875
*1300 FILLER_100_1877
*1301 FILLER_100_1889
*1302 FILLER_100_189
*1303 FILLER_100_1901
*1304 FILLER_100_1913
*1305 FILLER_100_1925
*1306 FILLER_100_195
*1307 FILLER_100_197
*1308 FILLER_100_209
*1309 FILLER_100_221
*1310 FILLER_100_233
*1311 FILLER_100_245
*1312 FILLER_100_251
*1313 FILLER_100_253
*1314 FILLER_100_265
*1315 FILLER_100_27
*1316 FILLER_100_277
*1317 FILLER_100_289
*1318 FILLER_100_29
*1319 FILLER_100_3
*1320 FILLER_100_301
*1321 FILLER_100_307
*1322 FILLER_100_309
*1323 FILLER_100_321
*1324 FILLER_100_333
*1325 FILLER_100_345
*1326 FILLER_100_357
*1327 FILLER_100_363
*1328 FILLER_100_365
*1329 FILLER_100_377
*1330 FILLER_100_389
*1331 FILLER_100_401
*1332 FILLER_100_41
*1333 FILLER_100_413
*1334 FILLER_100_419
*1335 FILLER_100_421
*1336 FILLER_100_433
*1337 FILLER_100_445
*1338 FILLER_100_457
*1339 FILLER_100_469
*1340 FILLER_100_475
*1341 FILLER_100_477
*1342 FILLER_100_489
*1343 FILLER_100_501
*1344 FILLER_100_513
*1345 FILLER_100_525
*1346 FILLER_100_53
*1347 FILLER_100_531
*1348 FILLER_100_533
*1349 FILLER_100_545
*1350 FILLER_100_557
*1351 FILLER_100_569
*1352 FILLER_100_581
*1353 FILLER_100_587
*1354 FILLER_100_589
*1355 FILLER_100_601
*1356 FILLER_100_613
*1357 FILLER_100_625
*1358 FILLER_100_637
*1359 FILLER_100_643
*1360 FILLER_100_645
*1361 FILLER_100_65
*1362 FILLER_100_657
*1363 FILLER_100_669
*1364 FILLER_100_681
*1365 FILLER_100_693
*1366 FILLER_100_699
*1367 FILLER_100_701
*1368 FILLER_100_713
*1369 FILLER_100_725
*1370 FILLER_100_737
*1371 FILLER_100_749
*1372 FILLER_100_755
*1373 FILLER_100_757
*1374 FILLER_100_769
*1375 FILLER_100_77
*1376 FILLER_100_781
*1377 FILLER_100_793
*1378 FILLER_100_805
*1379 FILLER_100_811
*1380 FILLER_100_813
*1381 FILLER_100_825
*1382 FILLER_100_83
*1383 FILLER_100_837
*1384 FILLER_100_849
*1385 FILLER_100_85
*1386 FILLER_100_861
*1387 FILLER_100_867
*1388 FILLER_100_869
*1389 FILLER_100_881
*1390 FILLER_100_893
*1391 FILLER_100_905
*1392 FILLER_100_917
*1393 FILLER_100_923
*1394 FILLER_100_925
*1395 FILLER_100_937
*1396 FILLER_100_949
*1397 FILLER_100_961
*1398 FILLER_100_97
*1399 FILLER_100_973
*1400 FILLER_100_979
*1401 FILLER_100_981
*1402 FILLER_100_993
*1403 FILLER_101_1001
*1404 FILLER_101_1007
*1405 FILLER_101_1009
*1406 FILLER_101_1021
*1407 FILLER_101_1033
*1408 FILLER_101_1045
*1409 FILLER_101_105
*1410 FILLER_101_1057
*1411 FILLER_101_1063
*1412 FILLER_101_1065
*1413 FILLER_101_1077
*1414 FILLER_101_1089
*1415 FILLER_101_1101
*1416 FILLER_101_111
*1417 FILLER_101_1113
*1418 FILLER_101_1119
*1419 FILLER_101_1121
*1420 FILLER_101_113
*1421 FILLER_101_1133
*1422 FILLER_101_1145
*1423 FILLER_101_1157
*1424 FILLER_101_1169
*1425 FILLER_101_1175
*1426 FILLER_101_1177
*1427 FILLER_101_1189
*1428 FILLER_101_1201
*1429 FILLER_101_1213
*1430 FILLER_101_1225
*1431 FILLER_101_1231
*1432 FILLER_101_1233
*1433 FILLER_101_1245
*1434 FILLER_101_125
*1435 FILLER_101_1257
*1436 FILLER_101_1269
*1437 FILLER_101_1281
*1438 FILLER_101_1287
*1439 FILLER_101_1289
*1440 FILLER_101_1301
*1441 FILLER_101_1313
*1442 FILLER_101_1325
*1443 FILLER_101_1337
*1444 FILLER_101_1343
*1445 FILLER_101_1345
*1446 FILLER_101_1357
*1447 FILLER_101_1369
*1448 FILLER_101_137
*1449 FILLER_101_1381
*1450 FILLER_101_1393
*1451 FILLER_101_1399
*1452 FILLER_101_1401
*1453 FILLER_101_1413
*1454 FILLER_101_1425
*1455 FILLER_101_1437
*1456 FILLER_101_1449
*1457 FILLER_101_1455
*1458 FILLER_101_1457
*1459 FILLER_101_1469
*1460 FILLER_101_1481
*1461 FILLER_101_149
*1462 FILLER_101_1493
*1463 FILLER_101_15
*1464 FILLER_101_1505
*1465 FILLER_101_1511
*1466 FILLER_101_1513
*1467 FILLER_101_1525
*1468 FILLER_101_1537
*1469 FILLER_101_1549
*1470 FILLER_101_1561
*1471 FILLER_101_1567
*1472 FILLER_101_1569
*1473 FILLER_101_1581
*1474 FILLER_101_1593
*1475 FILLER_101_1605
*1476 FILLER_101_161
*1477 FILLER_101_1617
*1478 FILLER_101_1623
*1479 FILLER_101_1625
*1480 FILLER_101_1637
*1481 FILLER_101_1649
*1482 FILLER_101_1661
*1483 FILLER_101_167
*1484 FILLER_101_1673
*1485 FILLER_101_1679
*1486 FILLER_101_1681
*1487 FILLER_101_169
*1488 FILLER_101_1693
*1489 FILLER_101_1705
*1490 FILLER_101_1717
*1491 FILLER_101_1729
*1492 FILLER_101_1735
*1493 FILLER_101_1737
*1494 FILLER_101_1749
*1495 FILLER_101_1761
*1496 FILLER_101_1773
*1497 FILLER_101_1785
*1498 FILLER_101_1791
*1499 FILLER_101_1793
*1500 FILLER_101_1805
*1501 FILLER_101_181
*1502 FILLER_101_1817
*1503 FILLER_101_1829
*1504 FILLER_101_1841
*1505 FILLER_101_1847
*1506 FILLER_101_1849
*1507 FILLER_101_1861
*1508 FILLER_101_1873
*1509 FILLER_101_1885
*1510 FILLER_101_1897
*1511 FILLER_101_1903
*1512 FILLER_101_1905
*1513 FILLER_101_1917
*1514 FILLER_101_193
*1515 FILLER_101_205
*1516 FILLER_101_217
*1517 FILLER_101_223
*1518 FILLER_101_225
*1519 FILLER_101_237
*1520 FILLER_101_249
*1521 FILLER_101_261
*1522 FILLER_101_27
*1523 FILLER_101_273
*1524 FILLER_101_279
*1525 FILLER_101_281
*1526 FILLER_101_293
*1527 FILLER_101_3
*1528 FILLER_101_305
*1529 FILLER_101_317
*1530 FILLER_101_329
*1531 FILLER_101_335
*1532 FILLER_101_337
*1533 FILLER_101_349
*1534 FILLER_101_361
*1535 FILLER_101_373
*1536 FILLER_101_385
*1537 FILLER_101_39
*1538 FILLER_101_391
*1539 FILLER_101_393
*1540 FILLER_101_405
*1541 FILLER_101_417
*1542 FILLER_101_429
*1543 FILLER_101_441
*1544 FILLER_101_447
*1545 FILLER_101_449
*1546 FILLER_101_461
*1547 FILLER_101_473
*1548 FILLER_101_485
*1549 FILLER_101_497
*1550 FILLER_101_503
*1551 FILLER_101_505
*1552 FILLER_101_51
*1553 FILLER_101_517
*1554 FILLER_101_529
*1555 FILLER_101_541
*1556 FILLER_101_55
*1557 FILLER_101_553
*1558 FILLER_101_559
*1559 FILLER_101_561
*1560 FILLER_101_57
*1561 FILLER_101_573
*1562 FILLER_101_585
*1563 FILLER_101_597
*1564 FILLER_101_609
*1565 FILLER_101_615
*1566 FILLER_101_617
*1567 FILLER_101_629
*1568 FILLER_101_641
*1569 FILLER_101_653
*1570 FILLER_101_665
*1571 FILLER_101_671
*1572 FILLER_101_673
*1573 FILLER_101_685
*1574 FILLER_101_69
*1575 FILLER_101_697
*1576 FILLER_101_709
*1577 FILLER_101_721
*1578 FILLER_101_727
*1579 FILLER_101_729
*1580 FILLER_101_741
*1581 FILLER_101_753
*1582 FILLER_101_765
*1583 FILLER_101_777
*1584 FILLER_101_783
*1585 FILLER_101_785
*1586 FILLER_101_797
*1587 FILLER_101_809
*1588 FILLER_101_81
*1589 FILLER_101_821
*1590 FILLER_101_833
*1591 FILLER_101_839
*1592 FILLER_101_841
*1593 FILLER_101_853
*1594 FILLER_101_865
*1595 FILLER_101_877
*1596 FILLER_101_889
*1597 FILLER_101_895
*1598 FILLER_101_897
*1599 FILLER_101_909
*1600 FILLER_101_921
*1601 FILLER_101_93
*1602 FILLER_101_933
*1603 FILLER_101_945
*1604 FILLER_101_951
*1605 FILLER_101_953
*1606 FILLER_101_965
*1607 FILLER_101_977
*1608 FILLER_101_989
*1609 FILLER_102_1005
*1610 FILLER_102_1017
*1611 FILLER_102_1029
*1612 FILLER_102_1035
*1613 FILLER_102_1037
*1614 FILLER_102_1049
*1615 FILLER_102_1061
*1616 FILLER_102_1073
*1617 FILLER_102_1085
*1618 FILLER_102_109
*1619 FILLER_102_1091
*1620 FILLER_102_1093
*1621 FILLER_102_1105
*1622 FILLER_102_1117
*1623 FILLER_102_1129
*1624 FILLER_102_1141
*1625 FILLER_102_1147
*1626 FILLER_102_1149
*1627 FILLER_102_1161
*1628 FILLER_102_1173
*1629 FILLER_102_1185
*1630 FILLER_102_1197
*1631 FILLER_102_1203
*1632 FILLER_102_1205
*1633 FILLER_102_121
*1634 FILLER_102_1217
*1635 FILLER_102_1229
*1636 FILLER_102_1241
*1637 FILLER_102_1253
*1638 FILLER_102_1259
*1639 FILLER_102_1261
*1640 FILLER_102_1273
*1641 FILLER_102_1285
*1642 FILLER_102_1297
*1643 FILLER_102_1309
*1644 FILLER_102_1315
*1645 FILLER_102_1317
*1646 FILLER_102_1329
*1647 FILLER_102_133
*1648 FILLER_102_1341
*1649 FILLER_102_1353